examples/feeders/17_SE001_1/008_segmentoBT.dss
New Line.SBT_15900 phases=4 bus1=BT364261.1.2.3.4 bus2=BT618581.1.2.3.4 linecode=75_4 length=0.01393 units=km
New Line.SBT_23366 phases=4 bus1=BT279311.1.2.3.4 bus2=BT279301.1.2.3.4 linecode=75_4 length=0.02702 units=km
New Line.SBT_23265 phases=4 bus1=BT279271.1.2.3.4 bus2=BT279261.1.2.3.4 linecode=73_4 length=0.03183 units=km
New Line.SBT_23857 phases=4 bus1=ET17_1609.1.2.3.4 bus2=BT279331.1.2.3.4 linecode=75_4 length=0.02625 units=km
New Line.SBT_27292 phases=4 bus1=BT279191.1.2.3.4 bus2=BT279202.1.2.3.4 linecode=73_4 length=0.03256 units=km
New Line.SBT_27474 phases=4 bus1=BT618581.1.2.3.4 bus2=BT618571.1.2.3.4 linecode=75_4 length=0.01946 units=km
New Line.SBT_30516 phases=4 bus1=BT329331.1.2.3.4 bus2=BT329301.1.2.3.4 linecode=97_4 length=0.02178 units=km
New Line.SBT_30517 phases=4 bus1=BT267351.1.2.3.4 bus2=BT329331.1.2.3.4 linecode=73_4 length=0.02163 units=km
New Line.SBT_30510 phases=4 bus1=BT279351.1.2.3.4 bus2=BT267351.1.2.3.4 linecode=73_4 length=0.06997 units=km
New Line.SBT_30511 phases=4 bus1=BT279342.1.2.3.4 bus2=BT279191.1.2.3.4 linecode=73_4 length=0.03829 units=km
New Line.SBT_30512 phases=4 bus1=BT279331.1.2.3.4 bus2=BT279342.1.2.3.4 linecode=74_4 length=0.0182 units=km
New Line.SBT_30513 phases=4 bus1=BT279342.1.2.3.4 bus2=BT279351.1.2.3.4 linecode=73_4 length=0.05021 units=km
New Line.SBT_32773 phases=4 bus1=BT785091.1.2.3.4 bus2=BT479792.1.2.3.4 linecode=74_4 length=0.04152 units=km
New Line.SBT_32784 phases=4 bus1=BT785091.1.2.3.4 bus2=BT784571.1.2.3.4 linecode=74_4 length=0.00914 units=km
New Line.SBT_32785 phases=4 bus1=BT784571.1.2.3.4 bus2=BT784581.1.2.3.4 linecode=74_4 length=0.03528 units=km
New Line.SBT_32786 phases=4 bus1=BT784581.1.2.3.4 bus2=BT784591.1.2.3.4 linecode=74_4 length=0.03688 units=km
New Line.SBT_32787 phases=4 bus1=BT784591.1.2.3.4 bus2=BT784601.1.2.3.4 linecode=74_4 length=0.03371 units=km
New Line.SBT_32769 phases=4 bus1=BT784581.1.2.3.4 bus2=BT279212.1.2.3.4 linecode=74_4 length=0.02156 units=km
New Line.SBT_32771 phases=4 bus1=BT785091.1.2.3.4 bus2=BT345063.1.2.3.4 linecode=74_4 length=0.01671 units=km
New Line.SBT_32800 phases=4 bus1=BT279202.1.2.3.4 bus2=BT785091.1.2.3.4 linecode=74_4 length=0.01883 units=km
New Line.SBT_35804 phases=4 bus1=BT345063.1.2.3.4 bus2=BT768581.1.2.3.4 linecode=74_4 length=0.05353 units=km
New Line.SBT_8062 phases=4 bus1=BT279301.1.2.3.4 bus2=BT364261.1.2.3.4 linecode=75_4 length=0.00457 units=km
New Line.SBT_8505 phases=4 bus1=ET17_1609.1.2.3.4 bus2=BT279311.1.2.3.4 linecode=75_4 length=0.02702 units=km
New Line.SBT_8327 phases=4 bus1=BT364261.1.2.3.4 bus2=BT279271.1.2.3.4 linecode=73_4 length=0.03301 units=km
New Line.SBT_8328 phases=4 bus1=BT364261.1.2.3.4 bus2=BT279291.1.2.3.4 linecode=73_4 length=0.00698 units=km
New Line.SBT_8642 phases=4 bus1=ET17_1690.1.2.3.4 bus2=BT297541.1.2.3.4 linecode=75_4 length=0.02778 units=km
New Line.SBT_8643 phases=4 bus1=BT297541.1.2.3.4 bus2=BT267821.1.2.3.4 linecode=75_4 length=0.04751 units=km
New Line.SBT_8720 phases=4 bus1=ET17_1690.1.2.3.4 bus2=BT297521.1.2.3.4 linecode=75_4 length=0.03467 units=km
New Line.SBT_8721 phases=4 bus1=BT267821.1.2.3.4 bus2=BT219601.1.2.3.4 linecode=97_4 length=0.02332 units=km
New Line.SBT_8722 phases=4 bus1=BT267821.1.2.3.4 bus2=BT219591.1.2.3.4 linecode=75_4 length=0.0338 units=km
New Line.SBT_8043 phases=4 bus1=BT344901.1.2.3.4 bus2=BT297581.1.2.3.4 linecode=58_4 length=0.04342 units=km
New Line.SBT_8044 phases=4 bus1=BT329171.1.2.3.4 bus2=BT297651.1.2.3.4 linecode=75_4 length=0.00975 units=km
New Line.SBT_8300 phases=4 bus1=BT329171.1.2.3.4 bus2=BT297661.1.2.3.4 linecode=75_4 length=0.00561 units=km
New Line.SBT_8311 phases=4 bus1=BT297651.1.2.3.4 bus2=BT297671.1.2.3.4 linecode=75_4 length=0.02864 units=km
New Line.SBT_8312 phases=4 bus1=BT272781.1.2.3.4 bus2=BT309511.1.2.3.4 linecode=97_4 length=0.0286 units=km
New Line.SBT_8313 phases=4 bus1=BT297651.1.2.3.4 bus2=BT297641.1.2.3.4 linecode=75_4 length=0.04713 units=km
New Line.SBT_8314 phases=4 bus1=BT309511.1.2.3.4 bus2=BT292111.1.2.3.4 linecode=97_4 length=0.0223 units=km
New Line.SBT_8315 phases=4 bus1=BT297671.1.2.3.4 bus2=BT297682.1.2.3.4 linecode=75_4 length=0.02766 units=km
New Line.SBT_8285 phases=4 bus1=BT297521.1.2.3.4 bus2=BT297551.1.2.3.4 linecode=58_4 length=0.0418 units=km
New Line.SBT_8286 phases=4 bus1=BT297511.1.2.3.4 bus2=BT278661.1.2.3.4 linecode=97_4 length=0.03847 units=km
New Line.SBT_8287 phases=4 bus1=BT219601.1.2.3.4 bus2=BT219611.1.2.3.4 linecode=97_4 length=0.02872 units=km
New Line.SBT_8288 phases=4 bus1=BT297511.1.2.3.4 bus2=BT297631.1.2.3.4 linecode=75_4 length=0.04031 units=km
New Line.SBT_8289 phases=4 bus1=BT297551.1.2.3.4 bus2=BT297561.1.2.3.4 linecode=58_4 length=0.04535 units=km
New Line.SBT_8291 phases=4 bus1=BT297561.1.2.3.4 bus2=BT344901.1.2.3.4 linecode=58_4 length=0.03811 units=km
New Line.SBT_8298 phases=4 bus1=BT297631.1.2.3.4 bus2=BT329171.1.2.3.4 linecode=75_4 length=0.03698 units=km
New Line.SBT_26742 phases=4 bus1=BT272781.1.2.3.4 bus2=BT274511.1.2.3.4 linecode=97_4 length=0.01215 units=km
New Line.SBT_27308 phases=4 bus1=BT267831.1.2.3.4 bus2=BT278532.1.2.3.4 linecode=97_4 length=0.04528 units=km
New Line.SBT_23489 phases=4 bus1=BT267821.1.2.3.4 bus2=BT267831.1.2.3.4 linecode=97_4 length=0.01879 units=km
New Line.SBT_23243 phases=4 bus1=BT219591.1.2.3.4 bus2=BT219581.1.2.3.4 linecode=75_4 length=0.03722 units=km
New Line.SBT_23248 phases=4 bus1=BT219611.1.2.3.4 bus2=BT219621.1.2.3.4 linecode=97_4 length=0.0315 units=km
New Line.SBT_23249 phases=4 bus1=BT344901.1.2.3.4 bus2=BT297571.1.2.3.4 linecode=58_4 length=0.02879 units=km
New Line.SBT_23250 phases=4 bus1=BT344901.1.2.3.4 bus2=BT297591.1.2.3.4 linecode=58_4 length=0.02169 units=km
New Line.SBT_18252 phases=4 bus1=BT278661.1.2.3.4 bus2=BT278651.1.2.3.4 linecode=97_4 length=0.03606 units=km
New Line.SBT_22633 phases=4 bus1=BT297521.1.2.3.4 bus2=BT297511.1.2.3.4 linecode=75_4 length=0.04272 units=km
New Line.SBT_23098 phases=4 bus1=BT219581.1.2.3.4 bus2=BT219572.1.2.3.4 linecode=75_4 length=0.02773 units=km
New Line.SBT_14544 phases=4 bus1=BT219621.1.2.3.4 bus2=BT272781.1.2.3.4 linecode=97_4 length=0.02098 units=km
New Line.SBT_14545 phases=4 bus1=BT259962.1.2.3.4 bus2=BT292121.1.2.3.4 linecode=97_4 length=0.02389 units=km
New Line.SBT_15712 phases=4 bus1=BT272781.1.2.3.4 bus2=BT259962.1.2.3.4 linecode=97_4 length=0.04481 units=km
New Line.SBT_23122 phases=4 bus1=BT296021.1.2.3.4 bus2=BT296031.1.2.3.4 linecode=97_4 length=0.0566 units=km
New Line.SBT_8074 phases=4 bus1=ET17_1713.1.2.3.4 bus2=BT296021.1.2.3.4 linecode=97_4 length=0.10872 units=km
New Line.SBT_8075 phases=4 bus1=BT296031.1.2.3.4 bus2=BT296041.1.2.3.4 linecode=97_4 length=0.04301 units=km
New Line.SBT_7311 phases=4 bus1=ET17_1842.1.2.3.4 bus2=BT272161.1.2.3.4 linecode=73_4 length=0.1111 units=km
New Line.SBT_7312 phases=4 bus1=BT268131.1.2.3.4 bus2=BT350451.1.2.3.4 linecode=73_4 length=0.09884 units=km
New Line.SBT_35982 phases=4 bus1=ET17_1842.1.2.3.4 bus2=BT814281.1.2.3.4 linecode=97_4 length=0.04162 units=km
New Line.SBT_22681 phases=4 bus1=BT272161.1.2.3.4 bus2=BT268131.1.2.3.4 linecode=73_4 length=0.08698 units=km
New Line.SBT_21838 phases=2 bus1=BT250861.1.4 bus2=BT250871.1.4 linecode=60_2 length=0.10072 units=km
New Line.SBT_12642 phases=2 bus1=ET17_1953.2.4 bus2=BT597511.2.4 linecode=60_2 length=0.09716 units=km
New Line.SBT_5842 phases=3 bus1=ET17_1953.1.2.4 bus2=BT250861.1.2.4 linecode=44_3 length=0.04962 units=km
New Line.SBT_6120 phases=2 bus1=BT250871.1.4 bus2=BT250881.1.4 linecode=60_2 length=0.09735 units=km
New Line.SBT_6727 phases=4 bus1=BT218901.1.2.3.4 bus2=BT218892.1.2.3.4 linecode=73_4 length=0.02594 units=km
New Line.SBT_8853 phases=4 bus1=ET17_2121.1.2.3.4 bus2=BT218901.1.2.3.4 linecode=73_4 length=0.0441 units=km
New Line.SBT_33028 phases=4 bus1=BT787631.1.2.3.4 bus2=BT200961.1.2.3.4 linecode=73_4 length=0.03868 units=km
New Line.SBT_33048 phases=4 bus1=ET17_2121.1.2.3.4 bus2=BT787631.1.2.3.4 linecode=73_4 length=0.04519 units=km
New Line.SBT_33141 phases=4 bus1=BT200961.1.2.3.4 bus2=BT200971.1.2.3.4 linecode=74_4 length=0.03402 units=km
New Line.SBT_23492 phases=4 bus1=BT200961.1.2.3.4 bus2=BT200951.1.2.3.4 linecode=73_4 length=0.03996 units=km
New Line.SBT_23126 phases=4 bus1=BT269221.1.2.3.4 bus2=BT269211.1.2.3.4 linecode=73_4 length=0.04833 units=km
New Line.SBT_23127 phases=4 bus1=BT272901.1.2.3.4 bus2=BT621791.1.2.3.4 linecode=73_4 length=0.02066 units=km
New Line.SBT_23128 phases=4 bus1=BT621791.1.2.3.4 bus2=BT269251.1.2.3.4 linecode=75_4 length=0.00478 units=km
New Line.SBT_23131 phases=4 bus1=BT269261.1.2.3.4 bus2=BT278531.1.2.3.4 linecode=73_4 length=0.03191 units=km
New Line.SBT_23132 phases=4 bus1=BT278541.1.2.3.4 bus2=BT278551.1.2.3.4 linecode=75_4 length=0.03966 units=km
New Line.SBT_15621 phases=4 bus1=BT278551.1.2.3.4 bus2=BT278562.1.2.3.4 linecode=75_4 length=0.03606 units=km
New Line.SBT_23113 phases=4 bus1=BT363331.1.2.3.4 bus2=BT269221.1.2.3.4 linecode=73_4 length=0.02721 units=km
New Line.SBT_33870 phases=4 bus1=BT621791.1.2.3.4 bus2=BT272892.1.2.3.4 linecode=16_4 length=0.04066 units=km
New Line.SBT_8079 phases=4 bus1=BT272911.1.2.3.4 bus2=BT272901.1.2.3.4 linecode=73_4 length=0.04847 units=km
New Line.SBT_8081 phases=4 bus1=BT621791.1.2.3.4 bus2=BT269261.1.2.3.4 linecode=73_4 length=0.00394 units=km
New Line.SBT_8082 phases=4 bus1=BT269211.1.2.3.4 bus2=BT269201.1.2.3.4 linecode=73_4 length=0.03624 units=km
New Line.SBT_8091 phases=4 bus1=BT269251.1.2.3.4 bus2=BT278541.1.2.3.4 linecode=75_4 length=0.04342 units=km
New Line.SBT_8092 phases=4 bus1=BT269201.1.2.3.4 bus2=BT269191.1.2.3.4 linecode=58_4 length=0.03055 units=km
New Line.SBT_8005 phases=4 bus1=ET17_2175.1.2.3.4 bus2=BT272911.1.2.3.4 linecode=73_4 length=0.02856 units=km
New Line.SBT_8006 phases=4 bus1=ET17_2175.1.2.3.4 bus2=BT363331.1.2.3.4 linecode=73_4 length=0.03223 units=km
New Line.SBT_36198 phases=4 bus1=ET17_2370.1.2.3.4 bus2=BT269222.1.2.3.4 linecode=74_4 length=0.04453 units=km
New Line.SBT_36199 phases=4 bus1=BT730922.1.2.3.4 bus2=BT269243.1.2.3.4 linecode=74_4 length=0.03905 units=km
New Line.SBT_36200 phases=4 bus1=BT730962.1.2.3.4 bus2=BT730922.1.2.3.4 linecode=74_4 length=0.03384 units=km
New Line.SBT_36201 phases=4 bus1=ET17_2370.1.2.3.4 bus2=BT730952.1.2.3.4 linecode=74_4 length=0.03143 units=km
New Line.SBT_36202 phases=4 bus1=BT730952.1.2.3.4 bus2=BT730962.1.2.3.4 linecode=74_4 length=0.01921 units=km
New Line.SBT_36203 phases=4 bus1=BT269243.1.2.3.4 bus2=BT752743.1.2.3.4 linecode=74_4 length=0.03849 units=km
New Line.SBT_33056 phases=4 bus1=BT215451.1.2.3.4 bus2=BT787901.1.2.3.4 linecode=92_4 length=0.03619 units=km
New Line.SBT_33059 phases=2 bus1=BT243281.1.4 bus2=BT788001.1.4 linecode=62_2 length=0.04771 units=km
New Line.SBT_33049 phases=2 bus1=BT298591.1.4 bus2=BT787661.1.4 linecode=62_2 length=0.05459 units=km
New Line.SBT_33030 phases=4 bus1=ET17_2649.1.2.3.4 bus2=BT215451.1.2.3.4 linecode=92_4 length=0.04002 units=km
New Line.SBT_33032 phases=4 bus1=BT787901.1.2.3.4 bus2=BT218841.1.2.3.4 linecode=92_4 length=0.05003 units=km
New Line.SBT_33034 phases=2 bus1=BT787661.1.4 bus2=BT243281.1.4 linecode=62_2 length=0.06262 units=km
New Line.SBT_33035 phases=4 bus1=BT298601.1.2.3.4 bus2=BT298591.1.2.3.4 linecode=92_4 length=0.04528 units=km
New Line.SBT_33036 phases=4 bus1=ET17_2649.1.2.3.4 bus2=BT298601.1.2.3.4 linecode=92_4 length=0.04681 units=km
New Line.SBT_33039 phases=2 bus1=BT788001.1.4 bus2=BT618331.1.4 linecode=62_2 length=0.04795 units=km
New Line.SBT_22317 phases=4 bus1=BT218851.1.2.3.4 bus2=BT218861.1.2.3.4 linecode=97_4 length=0.03996 units=km
New Line.SBT_21846 phases=4 bus1=BT218841.1.2.3.4 bus2=BT218851.1.2.3.4 linecode=92_4 length=0.03895 units=km
New Line.SBT_15460 phases=4 bus1=ET17_2665.1.2.3.4 bus2=BT549651.1.2.3.4 r1=0.001 r0=0.001 x1=0 x0=0 c1=0 c0=0 length=0.01716 units=km switch=T
New Line.SBT_15461 phases=4 bus1=BT549641.1.2.3.4 bus2=BT549631.1.2.3.4 r1=0.001 r0=0.001 x1=0 x0=0 c1=0 c0=0 length=0.01681 units=km switch=T
New Line.SBT_27253 phases=4 bus1=BT549651.1.2.3.4 bus2=BT549641.1.2.3.4 r1=0.001 r0=0.001 x1=0 x0=0 c1=0 c0=0 length=0.0146 units=km switch=T
New Line.SBT_27254 phases=4 bus1=BT549631.1.2.3.4 bus2=BT192631.1.2.3.4 r1=0.001 r0=0.001 x1=0 x0=0 c1=0 c0=0 length=0.0222 units=km switch=T
New Line.SBT_27251 phases=4 bus1=BT267451.1.2.3.4 bus2=BT267441.1.2.3.4 linecode=73_4 length=0.03265 units=km
New Line.SBT_27252 phases=4 bus1=ET17_28.1.2.3.4 bus2=BT273061.1.2.3.4 linecode=75_4 length=0.03996 units=km
New Line.SBT_26880 phases=4 bus1=BT273041.1.2.3.4 bus2=BT643671.1.2.3.4 linecode=75_4 length=0.02229 units=km
New Line.SBT_26881 phases=4 bus1=BT643671.1.2.3.4 bus2=BT269192.1.2.3.4 linecode=58_4 length=0.01352 units=km
New Line.SBT_26882 phases=4 bus1=BT267461.1.2.3.4 bus2=BT267451.1.2.3.4 linecode=73_4 length=0.03689 units=km
New Line.SBT_28812 phases=4 bus1=BT255531.1.2.3.4 bus2=BT255541.1.2.3.4 linecode=73_4 length=0.02335 units=km
New Line.SBT_15457 phases=2 bus1=BT643331.1.4 bus2=BT663891.1.4 linecode=60_2 length=0.03329 units=km
New Line.SBT_15458 phases=4 bus1=BT255511.1.2.3.4 bus2=BT663941.1.2.3.4 linecode=73_4 length=0.03121 units=km
New Line.SBT_14744 phases=4 bus1=BT360481.1.2.3.4 bus2=BT643331.1.2.3.4 linecode=73_4 length=0.03523 units=km
New Line.SBT_14788 phases=4 bus1=BT643671.1.2.3.4 bus2=BT267461.1.2.3.4 linecode=58_4 length=0.0232 units=km
New Line.SBT_15083 phases=4 bus1=BT643331.1.2.3.4 bus2=BT665181.1.2.3.4 linecode=58_4 length=0.02336 units=km
New Line.SBT_22394 phases=4 bus1=BT273061.1.2.3.4 bus2=BT255461.1.2.3.4 linecode=75_4 length=0.02476 units=km
New Line.SBT_22395 phases=4 bus1=BT255591.1.2.3.4 bus2=BT255581.1.2.3.4 linecode=75_4 length=0.04105 units=km
New Line.SBT_22401 phases=4 bus1=BT255581.1.2.3.4 bus2=BT255571.1.2.3.4 linecode=75_4 length=0.03302 units=km
New Line.SBT_21988 phases=2 bus1=BT133241.1.4 bus2=BT601681.1.4 linecode=62_2 length=0.07409 units=km
New Line.SBT_21989 phases=2 bus1=BT601681.1.4 bus2=BT595021.1.4 linecode=62_2 length=0.05197 units=km
New Line.SBT_22413 phases=4 bus1=BT369581.1.2.3.4 bus2=BT255561.1.2.3.4 linecode=75_4 length=0.00779 units=km
New Line.SBT_22531 phases=4 bus1=BT369581.1.2.3.4 bus2=BT360481.1.2.3.4 linecode=73_4 length=0.00631 units=km
New Line.SBT_35416 phases=4 bus1=BT810741.1.2.3.4 bus2=BT255511.1.2.3.4 linecode=73_4 length=0.0288 units=km
New Line.SBT_35417 phases=4 bus1=BT273061.1.2.3.4 bus2=BT810741.1.2.3.4 linecode=73_4 length=0.04124 units=km
New Line.SBT_36097 phases=4 bus1=BT643671.1.2.3.4 bus2=BT273012.1.2.3.4 linecode=16_4 length=0.01888 units=km
New Line.SBT_6818 phases=4 bus1=BT273061.1.2.3.4 bus2=BT255591.1.2.3.4 linecode=75_4 length=0.01315 units=km
New Line.SBT_6831 phases=4 bus1=BT255511.1.2.3.4 bus2=BT255521.1.2.3.4 linecode=73_4 length=0.05025 units=km
New Line.SBT_6832 phases=4 bus1=BT663941.1.2.3.4 bus2=BT255531.1.2.3.4 linecode=73_4 length=0.01771 units=km
New Line.SBT_6842 phases=4 bus1=BT369581.1.2.3.4 bus2=BT255551.1.2.3.4 linecode=73_4 length=0.02921 units=km
New Line.SBT_7055 phases=4 bus1=ET17_28.1.2.3.4 bus2=BT273041.1.2.3.4 linecode=75_4 length=0.04561 units=km
New Line.SBT_7091 phases=4 bus1=BT255571.1.2.3.4 bus2=BT369581.1.2.3.4 linecode=75_4 length=0.01912 units=km
New Line.SBT_8459 phases=3 bus1=BT255521.1.2.4 bus2=BT133241.1.2.4 linecode=59_3 length=0.05646 units=km
New Line.SBT_8870 phases=3 bus1=ET17_2847.1.2.4 bus2=BT278212.1.2.4 linecode=44_3 length=0.11145 units=km
New Line.SBT_7886 phases=2 bus1=BT278241.1.4 bus2=BT278251.1.4 linecode=60_2 length=0.09192 units=km
New Line.SBT_18009 phases=2 bus1=BT278231.1.4 bus2=BT278241.1.4 linecode=62_2 length=0.06907 units=km
New Line.SBT_15535 phases=3 bus1=BT278212.1.2.4 bus2=BT278201.1.2.4 linecode=91_3 length=0.10647 units=km
New Line.SBT_32169 phases=2 bus1=BT278241.1.4 bus2=BT278262.1.4 linecode=62_2 length=0.10469 units=km
New Line.SBT_27293 phases=2 bus1=BT278201.1.4 bus2=BT460401.1.4 linecode=62_2 length=0.12225 units=km
New Line.SBT_23572 phases=3 bus1=ET17_2847.1.2.4 bus2=BT278231.1.2.4 linecode=44_3 length=0.10977 units=km
New Line.SBT_26026 phases=4 bus1=ET17_2896.1.2.3.4 bus2=BT478211.1.2.3.4 linecode=73_4 length=0.07117 units=km
New Line.SBT_22515 phases=4 bus1=ET17_296.1.2.3.4 bus2=BT410811.1.2.3.4 linecode=97_4 length=0.02178 units=km
New Line.SBT_28759 phases=4 bus1=BT219511.1.2.3.4 bus2=BT218881.1.2.3.4 linecode=97_4 length=0.04837 units=km
New Line.SBT_22673 phases=4 bus1=BT410811.1.2.3.4 bus2=BT219491.1.2.3.4 linecode=97_4 length=0.03032 units=km
New Line.SBT_22674 phases=4 bus1=BT219521.1.2.3.4 bus2=BT292122.1.2.3.4 linecode=97_4 length=0.05111 units=km
New Line.SBT_22675 phases=4 bus1=BT219491.1.2.3.4 bus2=BT219481.1.2.3.4 linecode=97_4 length=0.04301 units=km
New Line.SBT_15479 phases=4 bus1=BT410791.1.2.3.4 bus2=BT218862.1.2.3.4 linecode=97_4 length=0.02074 units=km
New Line.SBT_6904 phases=4 bus1=BT219481.1.2.3.4 bus2=BT279421.1.2.3.4 linecode=97_4 length=0.04528 units=km
New Line.SBT_6905 phases=3 bus1=BT309491.1.2.4 bus2=BT309501.1.2.4 linecode=96_3 length=0.03068 units=km
New Line.SBT_6957 phases=4 bus1=BT279421.1.2.3.4 bus2=BT279431.1.2.3.4 linecode=97_4 length=0.01703 units=km
New Line.SBT_6958 phases=4 bus1=BT218881.1.2.3.4 bus2=BT410791.1.2.3.4 linecode=97_4 length=0.00803 units=km
New Line.SBT_6969 phases=4 bus1=BT410791.1.2.3.4 bus2=BT218872.1.2.3.4 linecode=97_4 length=0.00344 units=km
New Line.SBT_6970 phases=4 bus1=BT410791.1.2.3.4 bus2=BT218891.1.2.3.4 linecode=97_4 length=0.02125 units=km
New Line.SBT_7024 phases=4 bus1=ET17_296.1.2.3.4 bus2=BT219551.1.2.3.4 linecode=97_4 length=0.03536 units=km
New Line.SBT_7153 phases=3 bus1=BT219511.1.2.4 bus2=BT309491.1.2.4 linecode=96_3 length=0.0124 units=km
New Line.SBT_7300 phases=4 bus1=BT410811.1.2.3.4 bus2=BT219521.1.2.3.4 linecode=97_4 length=0.00333 units=km
New Line.SBT_7301 phases=4 bus1=BT410811.1.2.3.4 bus2=BT219501.1.2.3.4 linecode=97_4 length=0.01934 units=km
New Line.SBT_7304 phases=4 bus1=BT219501.1.2.3.4 bus2=BT219511.1.2.3.4 linecode=97_4 length=0.04162 units=km
New Line.SBT_35123 phases=4 bus1=BT219551.1.2.3.4 bus2=BT329182.1.2.3.4 linecode=97_4 length=0.04272 units=km
New Line.SBT_33037 phases=4 bus1=BT787601.1.2.3.4 bus2=BT309531.1.2.3.4 linecode=74_4 length=0.0202 units=km
New Line.SBT_33033 phases=4 bus1=BT787681.1.2.3.4 bus2=BT242452.1.2.3.4 linecode=74_4 length=0.02477 units=km
New Line.SBT_33045 phases=4 bus1=BT787681.1.2.3.4 bus2=BT787591.1.2.3.4 linecode=74_4 length=0.01651 units=km
New Line.SBT_33046 phases=4 bus1=BT787681.1.2.3.4 bus2=BT787601.1.2.3.4 linecode=74_4 length=0.01923 units=km
New Line.SBT_33047 phases=4 bus1=BT309531.1.2.3.4 bus2=BT787611.1.2.3.4 linecode=74_4 length=0.03114 units=km
New Line.SBT_33050 phases=4 bus1=BT279431.1.2.3.4 bus2=BT787681.1.2.3.4 linecode=74_4 length=0.01446 units=km
New Line.SBT_15455 phases=4 bus1=BT201751.1.2.3.4 bus2=BT298551.1.2.3.4 linecode=97_4 length=0.07187 units=km
New Line.SBT_12772 phases=2 bus1=BT298571.2.4 bus2=BT239431.2.4 linecode=60_2 length=0.09552 units=km
New Line.SBT_12782 phases=4 bus1=BT298542.1.2.3.4 bus2=BT298533.1.2.3.4 linecode=97_4 length=0.03625 units=km
New Line.SBT_13409 phases=2 bus1=BT603031.1.4 bus2=BT298581.1.4 linecode=60_2 length=0.04002 units=km
New Line.SBT_13567 phases=4 bus1=BT201751.1.2.3.4 bus2=BT201761.1.2.3.4 linecode=97_4 length=0.03189 units=km
New Line.SBT_13870 phases=2 bus1=BT298571.1.4 bus2=BT603031.1.4 linecode=60_2 length=0.055 units=km
New Line.SBT_25757 phases=4 bus1=ET17_3131.1.2.3.4 bus2=BT298571.1.2.3.4 linecode=97_4 length=0.09742 units=km
New Line.SBT_25758 phases=2 bus1=BT239431.2.4 bus2=BT239441.2.4 linecode=60_2 length=0.08713 units=km
New Line.SBT_25766 phases=4 bus1=BT298551.1.2.3.4 bus2=BT298542.1.2.3.4 linecode=97_4 length=0.03023 units=km
New Line.SBT_26120 phases=4 bus1=ET17_3131.1.2.3.4 bus2=BT201751.1.2.3.4 linecode=97_4 length=0.08766 units=km
New Line.SBT_27834 phases=4 bus1=BT552521.1.2.3.4 bus2=BT270411.1.2.3.4 linecode=74_4 length=0.02293 units=km
New Line.SBT_27835 phases=4 bus1=BT270401.1.2.3.4 bus2=BT255691.1.2.3.4 linecode=74_4 length=0.0257 units=km
New Line.SBT_27836 phases=4 bus1=BT255681.1.2.3.4 bus2=BT255671.1.2.3.4 linecode=74_4 length=0.01514 units=km
New Line.SBT_27859 phases=4 bus1=BT270401.1.2.3.4 bus2=BT663971.1.2.3.4 linecode=74_4 length=0.03454 units=km
New Line.SBT_16509 phases=4 bus1=ET17_3250.1.2.3.4 bus2=BT552521.1.2.3.4 linecode=74_4 length=0.03402 units=km
New Line.SBT_16510 phases=4 bus1=BT270411.1.2.3.4 bus2=BT270401.1.2.3.4 linecode=74_4 length=0.02162 units=km
New Line.SBT_16511 phases=4 bus1=BT255691.1.2.3.4 bus2=BT255681.1.2.3.4 linecode=74_4 length=0.01662 units=km
New Line.SBT_22597 phases=4 bus1=BT267411.1.2.3.4 bus2=BT267401.1.2.3.4 linecode=75_4 length=0.03329 units=km
New Line.SBT_22604 phases=4 bus1=BT267381.1.2.3.4 bus2=BT267371.1.2.3.4 linecode=75_4 length=0.03536 units=km
New Line.SBT_22409 phases=4 bus1=BT267411.1.2.3.4 bus2=BT267442.1.2.3.4 linecode=75_4 length=0.03883 units=km
New Line.SBT_32136 phases=4 bus1=ET17_3253.1.2.3.4 bus2=BT267432.1.2.3.4 linecode=16_4 length=0.04118 units=km
New Line.SBT_7178 phases=4 bus1=BT267391.1.2.3.4 bus2=BT267381.1.2.3.4 linecode=75_4 length=0.03329 units=km
New Line.SBT_7299 phases=4 bus1=BT267401.1.2.3.4 bus2=BT267391.1.2.3.4 linecode=75_4 length=0.02506 units=km
New Line.SBT_7100 phases=4 bus1=ET17_3253.1.2.3.4 bus2=BT267411.1.2.3.4 linecode=75_4 length=0.04549 units=km
New Line.SBT_6864 phases=4 bus1=BT267411.1.2.3.4 bus2=BT360441.1.2.3.4 linecode=75_4 length=0.003 units=km
New Line.SBT_18142 phases=3 bus1=ET17_3655.1.2.4 bus2=BT278401.1.2.4 linecode=44_3 length=0.08459 units=km
New Line.SBT_32783 phases=4 bus1=BT785141.1.2.3.4 bus2=BT768851.1.2.3.4 linecode=74_4 length=0.03919 units=km
New Line.SBT_32772 phases=2 bus1=BT785132.1.4 bus2=BT359241.1.4 linecode=62_2 length=0.05462 units=km
New Line.SBT_32770 phases=4 bus1=BT768851.1.2.3.4 bus2=BT310862.1.2.3.4 linecode=74_4 length=0.03614 units=km
...
